  Page 1                                          2025-09-30 오전 10:14:42
  **********************************************************************
  *                             E P A N E T                            *
  *                     Hydraulic and Water Quality                    *
  *                     Analysis for Pipe Networks                     *
  *                           Version 2.2                              *
  **********************************************************************
  
  Input File: 상수공 INP파일 생성 캐드 sample1.inp
  
  상수공 INP파일 생성 캐드 sample1
  
  Link - Node Table:
  ----------------------------------------------------------------------
  Link           Start          End                Length  Diameter
  ID             Node           Node                    m        mm
  ----------------------------------------------------------------------
  P001           Reservoir      J14                 41.32       200
  P002           J14            J06                 35.08       150
  P005           J05            J04                 95.79       100
  P009           J03            J14                 58.56       150
  P012           J06            J05                 64.26       100
  연습             J03            J04                 83.17       150
  ppp            J03            J04                  64.3       150
  
  Node Results:
  ----------------------------------------------------------------------
  Node                Demand      Head  Pressure   Quality
  ID                     CMD         m         m          
  ----------------------------------------------------------------------
  J03                  50.00     69.18      3.98      0.00
  J04                   0.00     69.18      4.63      0.00
  J05                  30.00     69.18      1.63      0.00
  J06                   0.00     69.18      4.94      0.00
  J14                   0.00     69.18      5.68      0.00
  Reservoir           -80.00     69.18      0.00      0.00 Reservoir
  
  Link Results:
  ----------------------------------------------------------------------
  Link                  Flow  VelocityUnit Headloss    Status
  ID                     CMD       m/s      m/km
  ----------------------------------------------------------------------
  P001                 80.00      0.03      0.01      Open
  P002                 21.54      0.01      0.00      Open
  P005                 -8.46      0.01      0.00      Open
  P009                -58.46      0.04      0.02      Open
  P012                 21.54      0.03      0.03      Open
  연습                    3.94      0.00      0.00      Open
  ppp                   4.52      0.00      0.00      Open
  
